# CIF file generated by supercell program. See https://orex.github.io/supercell
# E_e = 0.0000000000 eV
data_ 
_chemical_name_common ''
_cell_length_a 25.0058
_cell_length_b 23.9432
_cell_length_c 26.2529
_cell_angle_alpha 90
_cell_angle_beta 90
_cell_angle_gamma 90
_space_group_IT_number 1
_space_group_name_H-M_alt 'P 1'
_space_group_name_Hall 'P 1'
loop_
    _space_group_symop_operation_xyz
    x,y,z
loop_
    _atom_site_label
    _atom_site_type_symbol
    _atom_site_fract_x
    _atom_site_fract_y
    _atom_site_fract_z
    _atom_site_occupancy
    Ga      Ga   0.00000   0.12148   0.71875   1.000
    Ga      Ga   0.11111   0.12148   0.71875   1.000
    Ga      Ga   0.11111   0.21186   0.65625   1.000
    Ga      Ga   0.16667   0.28814   0.71875   1.000
    Ga      Ga   0.16667   0.04519   0.65625   1.000
    Ga      Ga   0.11111   0.12148   0.84375   1.000
    Ga      Ga   0.11111   0.21186   0.78125   1.000
    Ga      Ga   0.16667   0.28814   0.84375   1.000
    Ga      Ga   0.16667   0.04519   0.78125   1.000
    Ga      Ga   0.11111   0.21186   0.90625   1.000
    Ga      Ga   0.22222   0.12148   0.59375   1.000
    Ga      Ga   0.00000   0.21186   0.65625   1.000
    Ga      Ga   0.22222   0.12148   0.71875   1.000
    Ga      Ga   0.22222   0.21186   0.65625   1.000
    Ga      Ga   0.27778   0.28814   0.71875   1.000
    Ga      Ga   0.27778   0.04519   0.65625   1.000
    Ga      Ga   0.22222   0.12148   0.84375   1.000
    Ga      Ga   0.22222   0.21186   0.78125   1.000
    Ga      Ga   0.27778   0.28814   0.84375   1.000
    Ga      Ga   0.27778   0.04519   0.78125   1.000
    Ga      Ga   0.22222   0.21186   0.90625   1.000
    Ga      Ga   0.33333   0.12148   0.71875   1.000
    Ga      Ga   0.05556   0.28814   0.71875   1.000
    In      In   0.33333   0.21186   0.65625   1.000
    Sn      Sn   0.33333   0.12148   0.84375   1.000
    Sn      Sn   0.33333   0.21186   0.78125   1.000
    Sn      Sn   0.05556   0.04519   0.65625   1.000
    Sn      Sn   0.00000   0.12148   0.84375   1.000
    Sn      Sn   0.00000   0.21186   0.78125   1.000
    Sn      Sn   0.05556   0.28814   0.84375   1.000
    Sn      Sn   0.05556   0.04519   0.78125   1.000
    Sn      Sn   0.11111   0.12148   0.59375   1.000
